
**** 02/03/22 22:32:28 ************** PSpice Lite (Mar 2000) *****************

 ** Profile: "SCHEMATIC1-2"  [ D:\NUST\Semester 4\Electronic Devices and Circuits\Labs\Lab 1\lab1-SCHEMATIC1-2.sim ] 


 ****     CIRCUIT DESCRIPTION


******************************************************************************




** Creating circuit file "lab1-SCHEMATIC1-2.sim.cir" 
** WARNING: THIS AUTOMATICALLY GENERATED FILE MAY BE OVERWRITTEN BY SUBSEQUENT SIMULATIONS

*Libraries: 
* Local Libraries :
* From [PSPICE NETLIST] section of C:\Program Files\OrcadLite\PSpice\PSpice.ini file:
.lib "nom.lib" 

*Analysis directives: 
.DC LIN V_V1 0 20 0.1 
.PROBE V(*) I(*) W(*) D(*) NOISE(*) 
.INC ".\lab1-SCHEMATIC1.net" 



**** INCLUDING lab1-SCHEMATIC1.net ****
* source LAB1
V_V1         N00223 0 5V
R_R1         N00223 N00253  1k  
R_R2         N00253 N00344  3MEG  
R_R3         0 N00344  100k  
C_C1         0 N00253  1uF  
I_I1         0 N00253 DC 1mA  

**** RESUMING lab1-SCHEMATIC1-2.sim.cir ****
.END


          JOB CONCLUDED

          TOTAL JOB TIME             .02
