
**** 02/03/22 22:37:52 ************** PSpice Lite (Mar 2000) *****************

 ** Profile: "SCHEMATIC2-task2"  [ D:\NUST\Semester 4\Electronic Devices and Circuits\Labs\Lab 1\lab1-SCHEMATIC2-task2.sim ] 


 ****     CIRCUIT DESCRIPTION


******************************************************************************




** Creating circuit file "lab1-SCHEMATIC2-task2.sim.cir" 
** WARNING: THIS AUTOMATICALLY GENERATED FILE MAY BE OVERWRITTEN BY SUBSEQUENT SIMULATIONS

*Libraries: 
* Local Libraries :
* From [PSPICE NETLIST] section of C:\Program Files\OrcadLite\PSpice\PSpice.ini file:
.lib "nom.lib" 

*Analysis directives: 
.DC LIN V_V1 0 20 0.1 
.PROBE V(*) I(*) W(*) D(*) NOISE(*) 
.INC ".\lab1-SCHEMATIC2.net" 



**** INCLUDING lab1-SCHEMATIC2.net ****
* source LAB1
V_V1         N00188 0 5V
R_R1         N00188 N00218  1k  
R_R2         0 N00218  100k  
I_I1         0 N00218 DC 1mA  
C_C1         0 N00218  1uF  

**** RESUMING lab1-SCHEMATIC2-task2.sim.cir ****
.END


          JOB CONCLUDED

          TOTAL JOB TIME             .02
