
**** 04/16/22 21:45:11 ************** PSpice Lite (Mar 2000) *****************

 ** Profile: "SCHEMATIC1-m"  [ D:\NUST\Semester 4\Electronic Devices and Circuits\Labs\Lab 3\main-schematic1-m.sim ] 


 ****     CIRCUIT DESCRIPTION


******************************************************************************




** Creating circuit file "main-schematic1-m.sim.cir" 
** WARNING: THIS AUTOMATICALLY GENERATED FILE MAY BE OVERWRITTEN BY SUBSEQUENT SIMULATIONS

*Libraries: 
* Local Libraries :
* From [PSPICE NETLIST] section of C:\Program Files\OrcadLite\PSpice\PSpice.ini file:
.lib "nom.lib" 

*Analysis directives: 
.PROBE V(*) I(*) W(*) D(*) NOISE(*) 
.INC ".\main-SCHEMATIC1.net" 



**** INCLUDING main-SCHEMATIC1.net ****
* source MAIN
V_V1         N00080 0 5V
V_V2         N00522 0 5
R_R1         N00080 N00110  1k  
V_V4         N00603 N00603 1
D_D1         N00110 0 D1N4002 
R_R2         N00572 N00522  10k  
R_R4         N00572 N00603  5k  
R_R5         0 N00572  10k  
R_R7         N00603 N00522  5k  
R_R6         0 N00603  5k  

**** RESUMING main-schematic1-m.sim.cir ****
.END

ERROR -- Voltage source and/or inductor loop involving V_V4
You may break the loop by adding a series resistance