
**** 03/13/22 22:58:22 ************** PSpice Lite (Mar 2000) *****************

 ** Profile: "SCHEMATIC1-main"  [ D:\NUST\SEMESTER 4\ELECTRONIC DEVICES AND CIRCUITS\LABS\Lab 5\main-schematic1-main.sim ] 


 ****     CIRCUIT DESCRIPTION


******************************************************************************




** Creating circuit file "main-schematic1-main.sim.cir" 
** WARNING: THIS AUTOMATICALLY GENERATED FILE MAY BE OVERWRITTEN BY SUBSEQUENT SIMULATIONS

*Libraries: 
* Local Libraries :
* From [PSPICE NETLIST] section of C:\Program Files\OrcadLite\PSpice\PSpice.ini file:
.lib "nom.lib" 

*Analysis directives: 
.DC LIN V_V3 0 10 0.2 
.PROBE V(*) I(*) W(*) D(*) NOISE(*) 
.INC ".\main-SCHEMATIC1.net" 



**** INCLUDING main-SCHEMATIC1.net ****
* source MAIN
V_V1         N00225 0 10
R_R1         N00137 N00175  1k  
R_R2         0 N00175  1k  
D_D1         N00175 N00225 D1N4002 
V_V3         N00137 0 0Vdc

**** RESUMING main-schematic1-main.sim.cir ****
.END

**** 03/13/22 22:58:22 ************** PSpice Lite (Mar 2000) *****************

 ** Profile: "SCHEMATIC1-main"  [ D:\NUST\SEMESTER 4\ELECTRONIC DEVICES AND CIRCUITS\LABS\Lab 5\main-schematic1-main.sim ] 


 ****     Diode MODEL PARAMETERS


******************************************************************************




               D1N4002         
          IS   14.110000E-09 
           N    1.984        
         ISR  100.000000E-12 
         IKF   94.81         
          BV  100.1          
         IBV   10            
          RS     .03389      
          TT    4.761000E-06 
         CJO   51.170000E-12 
          VJ     .3905       
           M     .2762       



          JOB CONCLUDED

          TOTAL JOB TIME             .02
