
**** 03/13/22 01:09:53 ************** PSpice Lite (Mar 2000) *****************

 ** Profile: "SCHEMATIC1-main"  [ D:\NUST\SEMESTER 4\ELECTRONIC DEVICES AND CIRCUITS\LABS\Lab 5\main-SCHEMATIC1-main.sim ] 


 ****     CIRCUIT DESCRIPTION


******************************************************************************




** Creating circuit file "main-SCHEMATIC1-main.sim.cir" 
** WARNING: THIS AUTOMATICALLY GENERATED FILE MAY BE OVERWRITTEN BY SUBSEQUENT SIMULATIONS

*Libraries: 
* Local Libraries :
* From [PSPICE NETLIST] section of C:\Program Files\OrcadLite\PSpice\PSpice.ini file:
.lib "nom.lib" 

*Analysis directives: 
.TRAN  0 2ms 0 2u 
.PROBE V(*) I(*) W(*) D(*) NOISE(*) 
.INC ".\main-SCHEMATIC1.net" 



**** INCLUDING main-SCHEMATIC1.net ****
* source MAIN
D_D1         N02626 N00175 D1N4002 
V_V1         N00225 0 0.8
R_R1         N00137 N00175  1k  
V_V2         N02626 0 0.5
R_R2         0 N00175  1k  
V_V3         N00137 0  
+SIN 0 10 1k 0 0 0
D_D1         N00175 N00225 D1N4002 
$
ERROR -- Name "D_D1" is defined more than once

**** RESUMING main-SCHEMATIC1-main.sim.cir ****
.END
