
**** 05/28/21 20:55:10 ************** PSpice Lite (Mar 2000) *****************

 ** Profile: "SCHEMATIC1-asd"  [ F:\NUST\Semester 2\Electric Network Analysis\PSpice\a-SCHEMATIC1-asd.sim ] 


 ****     CIRCUIT DESCRIPTION


******************************************************************************




** Creating circuit file "a-SCHEMATIC1-asd.sim.cir" 
** WARNING: THIS AUTOMATICALLY GENERATED FILE MAY BE OVERWRITTEN BY SUBSEQUENT SIMULATIONS

*Libraries: 
* Local Libraries :
* From [PSPICE NETLIST] section of C:\Program Files\OrcadLite\PSpice\PSpice.ini file:
.lib "nom.lib" 

*Analysis directives: 
.AC DEC 101 500 100k
.PROBE V(*) I(*) W(*) D(*) NOISE(*) 
.INC ".\a-SCHEMATIC1.net" 



**** INCLUDING a-SCHEMATIC1.net ****
* source A
C_C1         N00092 N00127  1n  
R_R1         0 N00127  1k  
V_V2         N00092 0 DC 0Vdc AC 1Vac 

**** RESUMING a-SCHEMATIC1-asd.sim.cir ****
.END

**** 05/28/21 20:55:10 ************** PSpice Lite (Mar 2000) *****************

 ** Profile: "SCHEMATIC1-asd"  [ F:\NUST\Semester 2\Electric Network Analysis\PSpice\a-SCHEMATIC1-asd.sim ] 


 ****     SMALL SIGNAL BIAS SOLUTION       TEMPERATURE =   27.000 DEG C


******************************************************************************



 NODE   VOLTAGE     NODE   VOLTAGE     NODE   VOLTAGE     NODE   VOLTAGE


(N00092)    0.0000 (N00127)    0.0000 




    VOLTAGE SOURCE CURRENTS
    NAME         CURRENT

    V_V2         0.000E+00

    TOTAL POWER DISSIPATION   0.00E+00  WATTS



          JOB CONCLUDED

          TOTAL JOB TIME             .02
