
**** 05/30/21 17:28:33 ************** PSpice Lite (Mar 2000) *****************

 ** Profile: "SCHEMATIC1-A"  [ F:\NUST\Semester 2\Electric Network Analysis\PSpice\lab 12-schematic1-a.sim ] 


 ****     CIRCUIT DESCRIPTION


******************************************************************************




** Creating circuit file "lab 12-schematic1-a.sim.cir" 
** WARNING: THIS AUTOMATICALLY GENERATED FILE MAY BE OVERWRITTEN BY SUBSEQUENT SIMULATIONS

*Libraries: 
* Local Libraries :
* From [PSPICE NETLIST] section of C:\Program Files\OrcadLite\PSpice\PSpice.ini file:
.lib "nom.lib" 

*Analysis directives: 
.AC DEC 10k 10 10k
.PROBE V(*) I(*) W(*) D(*) NOISE(*) 
.INC ".\lab 12-SCHEMATIC1.net" 



**** INCLUDING "lab 12-SCHEMATIC1.net" ****
* source LAB 12

**** RESUMING "lab 12-schematic1-a.sim.cir" ****
.END

WARNING -- There are no devices in this circuit