
**** 04/05/21 20:19:25 ************** PSpice Lite (Mar 2000) *****************

 ** Profile: "SCHEMATIC1-A"  [ F:\NUST\Semester 2\Electric Network Analysis\PSpice\lab 5-schematic1-a.sim ] 


 ****     CIRCUIT DESCRIPTION


******************************************************************************




** Creating circuit file "lab 5-schematic1-a.sim.cir" 
** WARNING: THIS AUTOMATICALLY GENERATED FILE MAY BE OVERWRITTEN BY SUBSEQUENT SIMULATIONS

*Libraries: 
* Local Libraries :
* From [PSPICE NETLIST] section of C:\Program Files\OrcadLite\PSpice\PSpice.ini file:
.lib "nom.lib" 

*Analysis directives: 
.TRAN  0 9ms 0 0.005m SKIPBP 
.PROBE V(*) I(*) W(*) D(*) NOISE(*) 
.INC ".\lab 5-SCHEMATIC1.net" 



**** INCLUDING "lab 5-SCHEMATIC1.net" ****
* source LAB 5
R_R1         N00322 N00180  2.2k  
R_R2         0 N00322  1.1k  
R_R3         N00218 0  4.7k  
R_R4         N00245 0  4.7k  
C_C1         N00180 N00218  0.1u  
C_C2         N00218 N00245  0.1u  
V_V1         N00180 0  
+SIN 0 2 338.627 0 0 0

**** RESUMING "lab 5-schematic1-a.sim.cir" ****
.END


          JOB CONCLUDED

          TOTAL JOB TIME             .08
