
**** 07/17/21 18:10:58 ************** PSpice Lite (Mar 2000) *****************

 ** Profile: "SCHEMATIC1-a"  [ D:\NUST\Semester 1\Linear Circuit Analysis\Labs\PSpice\a-schematic1-a.sim ] 


 ****     CIRCUIT DESCRIPTION


******************************************************************************




** Creating circuit file "a-schematic1-a.sim.cir" 
** WARNING: THIS AUTOMATICALLY GENERATED FILE MAY BE OVERWRITTEN BY SUBSEQUENT SIMULATIONS

*Libraries: 
* Local Libraries :
* From [PSPICE NETLIST] section of C:\Program Files\OrcadLite\PSpice\PSpice.ini file:
.lib "nom.lib" 

*Analysis directives: 
.PROBE V(*) I(*) W(*) D(*) NOISE(*) 
.INC ".\a-SCHEMATIC1.net" 



**** INCLUDING a-SCHEMATIC1.net ****
* source A
V_V1         N02059 0 12
R_R1         N02059 0  1k  

**** RESUMING a-schematic1-a.sim.cir ****
.END

**** 07/17/21 18:10:58 ************** PSpice Lite (Mar 2000) *****************

 ** Profile: "SCHEMATIC1-a"  [ D:\NUST\Semester 1\Linear Circuit Analysis\Labs\PSpice\a-schematic1-a.sim ] 


 ****     SMALL SIGNAL BIAS SOLUTION       TEMPERATURE =   27.000 DEG C


******************************************************************************



 NODE   VOLTAGE     NODE   VOLTAGE     NODE   VOLTAGE     NODE   VOLTAGE


(N02059)   12.0000 




    VOLTAGE SOURCE CURRENTS
    NAME         CURRENT

    V_V1        -1.200E-02

    TOTAL POWER DISSIPATION   1.44E-01  WATTS



          JOB CONCLUDED

          TOTAL JOB TIME             .02
