
**** 12/07/20 17:58:58 ************** PSpice Lite (Mar 2000) *****************

 ** Profile: "SCHEMATIC1-a"  [ F:\NUST\Semester 1\Linear Circuit Analysis\Labs\PSpice\asdasdasdcxv-schematic1-a.sim ] 


 ****     CIRCUIT DESCRIPTION


******************************************************************************




** Creating circuit file "asdasdasdcxv-schematic1-a.sim.cir" 
** WARNING: THIS AUTOMATICALLY GENERATED FILE MAY BE OVERWRITTEN BY SUBSEQUENT SIMULATIONS

*Libraries: 
* Local Libraries :
* From [PSPICE NETLIST] section of C:\Program Files\OrcadLite\PSpice\PSpice.ini file:
.lib "nom.lib" 

*Analysis directives: 
.PROBE V(*) I(*) W(*) D(*) NOISE(*) 
.INC ".\asdasdasdcxv-SCHEMATIC1.net" 



**** INCLUDING asdasdasdcxv-SCHEMATIC1.net ****
* source ASDASDASDCXV
R_R4         N00937 N00774  1k  
R_R5         0 N00937  1k  
R_R6         N00879 N00774  1k  
I_I1         0 N02337 DC 3.488mA  
V_V2         N00744 0 15
R_R10          4.7k  
---------------------$
ERROR -- Missing node
R_R7         0 N02337  2.047k  
R_R8         0 N02337  4.7k  
R_R3         N00744 N00774  2.2k  

**** RESUMING asdasdasdcxv-schematic1-a.sim.cir ****
.END
