
**** 12/03/20 14:44:26 ************** PSpice Lite (Mar 2000) *****************

 ** Profile: "SCHEMATIC1-asd"  [ F:\NUST\Semester 1\Linear Circuit Analysis\Labs\PSpice\asddfg-SCHEMATIC1-asd.sim ] 


 ****     CIRCUIT DESCRIPTION


******************************************************************************




** Creating circuit file "asddfg-SCHEMATIC1-asd.sim.cir" 
** WARNING: THIS AUTOMATICALLY GENERATED FILE MAY BE OVERWRITTEN BY SUBSEQUENT SIMULATIONS

*Libraries: 
* Local Libraries :
* From [PSPICE NETLIST] section of C:\Program Files\OrcadLite\PSpice\PSpice.ini file:
.lib "nom.lib" 

*Analysis directives: 
.PROBE V(*) I(*) W(*) D(*) NOISE(*) 
.INC ".\asddfg-SCHEMATIC1.net" 



**** INCLUDING asddfg-SCHEMATIC1.net ****
* source ASDDFG
R_R10         N03455 0  6  
E_E3         N03437 0 N03455 N03437 2
I_I3         0 N03437 DC 5Adc  
R_R7         N03437 N03455  2  
R_R8         0 N03437  4  
R_R9         0 N03455  12  

**** RESUMING asddfg-SCHEMATIC1-asd.sim.cir ****
.END

**** 12/03/20 14:44:26 ************** PSpice Lite (Mar 2000) *****************

 ** Profile: "SCHEMATIC1-asd"  [ F:\NUST\Semester 1\Linear Circuit Analysis\Labs\PSpice\asddfg-SCHEMATIC1-asd.sim ] 


 ****     SMALL SIGNAL BIAS SOLUTION       TEMPERATURE =   27.000 DEG C


******************************************************************************



 NODE   VOLTAGE     NODE   VOLTAGE     NODE   VOLTAGE     NODE   VOLTAGE


(N03437)    0.0000 (N03455)    0.0000 




    VOLTAGE SOURCE CURRENTS
    NAME         CURRENT


    TOTAL POWER DISSIPATION   0.00E+00  WATTS



          JOB CONCLUDED

          TOTAL JOB TIME             .02
