
**** 11/10/20 00:41:03 ************** PSpice Lite (Mar 2000) *****************

 ** Profile: "SCHEMATIC1-A"  [ F:\NUST\Semester 1\Linear Circuit Analysis\Labs\PSpice\b-SCHEMATIC1-A.sim ] 


 ****     CIRCUIT DESCRIPTION


******************************************************************************




** Creating circuit file "b-SCHEMATIC1-A.sim.cir" 
** WARNING: THIS AUTOMATICALLY GENERATED FILE MAY BE OVERWRITTEN BY SUBSEQUENT SIMULATIONS

*Libraries: 
* Local Libraries :
* From [PSPICE NETLIST] section of C:\Program Files\OrcadLite\PSpice\PSpice.ini file:
.lib "nom.lib" 

*Analysis directives: 
.PROBE V(*) I(*) W(*) D(*) NOISE(*) 
.INC ".\b-SCHEMATIC1.net" 



**** INCLUDING b-SCHEMATIC1.net ****
* source B
V_V1         N02364 0 15
R_R1         0 N02364  1k  
R_R2         0 N02364  2.2k  

**** RESUMING b-SCHEMATIC1-A.sim.cir ****
.END

**** 11/10/20 00:41:03 ************** PSpice Lite (Mar 2000) *****************

 ** Profile: "SCHEMATIC1-A"  [ F:\NUST\Semester 1\Linear Circuit Analysis\Labs\PSpice\b-SCHEMATIC1-A.sim ] 


 ****     SMALL SIGNAL BIAS SOLUTION       TEMPERATURE =   27.000 DEG C


******************************************************************************



 NODE   VOLTAGE     NODE   VOLTAGE     NODE   VOLTAGE     NODE   VOLTAGE


(N02364)   15.0000 




    VOLTAGE SOURCE CURRENTS
    NAME         CURRENT

    V_V1        -2.182E-02

    TOTAL POWER DISSIPATION   3.27E-01  WATTS



          JOB CONCLUDED

          TOTAL JOB TIME            0.00
