
**** 12/03/20 14:36:39 ************** PSpice Lite (Mar 2000) *****************

 ** Profile: "SCHEMATIC1-f"  [ F:\NUST\Semester 1\Linear Circuit Analysis\Labs\PSpice\op-SCHEMATIC1-f.sim ] 


 ****     CIRCUIT DESCRIPTION


******************************************************************************




** Creating circuit file "op-SCHEMATIC1-f.sim.cir" 
** WARNING: THIS AUTOMATICALLY GENERATED FILE MAY BE OVERWRITTEN BY SUBSEQUENT SIMULATIONS

*Libraries: 
* Local Libraries :
* From [PSPICE NETLIST] section of C:\Program Files\OrcadLite\PSpice\PSpice.ini file:
.lib "nom.lib" 

*Analysis directives: 
.PROBE V(*) I(*) W(*) D(*) NOISE(*) 
.INC ".\op-SCHEMATIC1.net" 



**** INCLUDING op-SCHEMATIC1.net ****
* source OP
I_I1         0 N00203 DC 5  
R_R6         N00233 N02004  1k  
R_R1         0 N00203  4  
R_R2         N00233 N00203  2  
V_V1         0 N02004 1
R_R3         N00233 0  6  
E_E1         N00233 N00203 N00440 0 2

**** RESUMING op-SCHEMATIC1-f.sim.cir ****
.END

ERROR -- Node N00440 is undefined
ERROR -- Node N00440 is floating