
**** 01/04/21 12:06:42 ************** PSpice Lite (Mar 2000) *****************

 ** Profile: "SCHEMATIC1-sasd"  [ F:\NUST\Semester 1\Linear Circuit Analysis\Labs\PSpice\quiz1-SCHEMATIC1-sasd.sim ] 


 ****     CIRCUIT DESCRIPTION


******************************************************************************




** Creating circuit file "quiz1-SCHEMATIC1-sasd.sim.cir" 
** WARNING: THIS AUTOMATICALLY GENERATED FILE MAY BE OVERWRITTEN BY SUBSEQUENT SIMULATIONS

*Libraries: 
* Local Libraries :
* From [PSPICE NETLIST] section of C:\Program Files\OrcadLite\PSpice\PSpice.ini file:
.lib "nom.lib" 

*Analysis directives: 
.PROBE V(*) I(*) W(*) D(*) NOISE(*) 
.INC ".\quiz1-SCHEMATIC1.net" 



**** INCLUDING quiz1-SCHEMATIC1.net ****
* source QUIZ1
R_R1         N00124 N00154  1  
R_R2         0 N00154  2  
R_R3         N00181 N00154  3  
V_V1         N00124 0 10

**** RESUMING quiz1-SCHEMATIC1-sasd.sim.cir ****
.END

ERROR -- Less than 2 connections at node N00181