
**** 01/04/21 21:05:12 ************** PSpice Lite (Mar 2000) *****************

 ** Profile: "SCHEMATIC1-as"  [ F:\NUST\Semester 1\Linear Circuit Analysis\Labs\PSpice\short-SCHEMATIC1-as.sim ] 


 ****     CIRCUIT DESCRIPTION


******************************************************************************




** Creating circuit file "short-SCHEMATIC1-as.sim.cir" 
** WARNING: THIS AUTOMATICALLY GENERATED FILE MAY BE OVERWRITTEN BY SUBSEQUENT SIMULATIONS

*Libraries: 
* Local Libraries :
* From [PSPICE NETLIST] section of C:\Program Files\OrcadLite\PSpice\PSpice.ini file:
.lib "nom.lib" 

*Analysis directives: 
.PROBE V(*) I(*) W(*) D(*) NOISE(*) 
.INC ".\short-SCHEMATIC1.net" 



**** INCLUDING short-SCHEMATIC1.net ****
* source SHORT
R_R1         0 N00108  50  
I_I1         0 N00108 DC 12  
R_R2         0 N00108  30  

**** RESUMING short-SCHEMATIC1-as.sim.cir ****
.END

**** 01/04/21 21:05:12 ************** PSpice Lite (Mar 2000) *****************

 ** Profile: "SCHEMATIC1-as"  [ F:\NUST\Semester 1\Linear Circuit Analysis\Labs\PSpice\short-SCHEMATIC1-as.sim ] 


 ****     SMALL SIGNAL BIAS SOLUTION       TEMPERATURE =   27.000 DEG C


******************************************************************************



 NODE   VOLTAGE     NODE   VOLTAGE     NODE   VOLTAGE     NODE   VOLTAGE


(N00108)  225.0000 




    VOLTAGE SOURCE CURRENTS
    NAME         CURRENT


    TOTAL POWER DISSIPATION   0.00E+00  WATTS



          JOB CONCLUDED

          TOTAL JOB TIME             .02
