
**** 11/16/20 18:28:30 ************** PSpice Lite (Mar 2000) *****************

 ** Profile: "SCHEMATIC1-A"  [ F:\NUST\Semester 1\Linear Circuit Analysis\Labs\PSpice\wer-SCHEMATIC1-A.sim ] 


 ****     CIRCUIT DESCRIPTION


******************************************************************************




** Creating circuit file "wer-SCHEMATIC1-A.sim.cir" 
** WARNING: THIS AUTOMATICALLY GENERATED FILE MAY BE OVERWRITTEN BY SUBSEQUENT SIMULATIONS

*Libraries: 
* Local Libraries :
* From [PSPICE NETLIST] section of C:\Program Files\OrcadLite\PSpice\PSpice.ini file:
.lib "nom.lib" 

*Analysis directives: 
.PROBE V(*) I(*) W(*) D(*) NOISE(*) 
.INC ".\wer-SCHEMATIC1.net" 



**** INCLUDING wer-SCHEMATIC1.net ****
* source WER
R_R1         N00296 N00135  40  
R_R2         N00135 N00197  10  
R_R3         N00197 N00266  20  
V_V1         N00266 N00296 30
I_I1         N00296 N00135 DC 6A  
I_I2         N00296 N00197 DC 2.08  

**** RESUMING wer-SCHEMATIC1-A.sim.cir ****
.END

ERROR -- Node N00296 is floating
ERROR -- Node N00135 is floating
ERROR -- Node N00197 is floating
ERROR -- Node N00266 is floating